39
 energy: -73.597690243721 gnorm: 0.000916902147 xtb: 6.6.1 (8d0f1dd)
C            3.40047978829634       -0.04667014405839       -0.29882318592662
C            1.94762419254219        0.39729992653783       -0.53701860332027
C            1.14989187316048        0.32172183706711        0.78966635157247
C           -0.24664552782993        0.88035423488444        0.54601439111661
C           -1.06418846529744        1.08248636120133        1.82946423106090
N           -2.44585022230306        1.34407112690158        1.57146684292281
C           -2.96915306206089        1.01350445409882        0.45873237975096
N           -4.28696017234558        1.33598924640129        0.22412002596613
N           -2.30980881975949        0.46511035348578       -0.61610817084927
C           -0.97732275743752       -0.04156284948788       -0.43308651205155
C           -0.20367129403593       -0.03669840703901       -1.76707980838871
C            1.21944052132174       -0.56123037315008       -1.49618803368058
O            1.20393666822840       -1.86140477684775       -0.93301899555114
C            0.50141222260613       -1.88526645400742        0.29385973106489
C           -0.97032690502291       -1.50868353098367        0.04921521470188
O           -1.75398477668000       -1.69050906749013        1.19248766499569
O            0.54123744621243       -3.15894363107776        0.79630837178278
O            1.11719486295597       -1.03317059135768        1.22136061197042
O           -0.90352065704788       -0.83397950695658       -2.69223576903710
O           -0.51261037054997        2.17558668228923        2.52851375695690
O            1.93464803241458        1.68355119172656       -1.09243551654579
O            4.03540512554847        1.00265324955750        0.39850256651961
H            3.89079817582819       -0.21969387282365       -1.26727127223141
H            3.40558603404791       -0.97633306578642        0.27847993586026
H            1.65181889307249        0.87214887312103        1.58891503214566
H           -0.14228324607963        1.86596988989497        0.08130243225866
H           -0.99132438370900        0.18259608522277        2.46513159779951
H           -4.79977753799460        0.71059120190422       -0.37579502242548
H           -4.77726157942421        1.60611273821264        1.06161636713742
H           -2.85046179484897        0.00382866603967       -1.33176907239019
H           -0.12129182797406        0.99592331604162       -2.13469828356162
H            1.77113784097482       -0.66276563891949       -2.43763423734465
H           -1.33575259922806       -2.15011361155582       -0.76962000283248
H           -1.43156039635388       -2.48180774207518        1.64296174496690
H            1.45955861810860       -3.39181255252740        0.98309078592396
H           -0.36187067245010       -0.94610258845992       -3.48123770387059
H           -1.25980329385115        2.62548623553596        2.94055318703478
H            2.57377791830441        2.20613954728284       -0.58530923582360
H            4.91148214866123        0.71562318719627        0.67182712577882
