40
 energy: -61.217105394959 gnorm: 0.000556413327 xtb: 6.6.1 (8d0f1dd)
C            3.72881657430926        0.03342060001939        0.02884932315120
N            2.35307882885770        0.46892094761165        0.07969474729161
C            1.66974575370164        0.00944577800668        1.27461203450650
C            0.31634711484847        0.69953784430211        1.38581040858445
C           -0.47937547019558        0.49509489033533        0.09059330570402
C            0.28953638504629        1.03102474565115       -1.08993975049277
C            0.28053612798125        2.52340037913585       -0.91423830779268
C           -0.68504107297154        3.14562697293088       -0.24055433314293
C           -1.86217464530974        2.51658898455257        0.51449516289184
C           -1.89672912079352        1.04936757538075        0.10291368030999
O           -2.68005231996911        0.04637932025150        0.77522517150019
C           -2.07672313754611       -1.14248591059321        0.40999499534639
C           -0.79726054473236       -0.93328097290361       -0.08335211758581
C            0.01126517330668       -1.83258595621334       -0.72584617756468
C           -0.49394925067844       -3.12971191721820       -0.77649863289286
C           -1.72902221589801       -3.40808740670753       -0.20591576860603
C           -2.56376784275105       -2.44378164138979        0.37446362781279
O           -3.79943920135502       -2.75486692591402        0.85497098795019
C            1.26068940494358       -1.29940426545711       -1.39254829616168
C            1.59545821720520        0.21401915673555       -1.13028066642072
O           -1.72508379640607        2.67116732307354        1.90917920265049
H            4.19094041437448        0.40110666038310       -0.88649922040255
H            3.85285009448243       -1.06010869879293        0.06948525991682
H            4.25887833835453        0.46263883929112        0.87927143028065
H            2.28492411923395        0.28004689522024        2.13709283878039
H            1.54391389307366       -1.08661053514513        1.28314491608660
H           -0.25011066204172        0.29727015756981        2.22542193936407
H            0.48035938134169        1.76026291569628        1.55867229968837
H           -0.25262826250079        0.80360235088728       -2.01994258868581
H            1.06790411036294        3.09523803146323       -1.38434184822305
H           -0.65732781360395        4.22560981709856       -0.15873960284711
H           -2.79185846150883        3.01384379656943        0.18662666969962
H           -2.25736083578510        1.05834740039368       -0.94378932371288
H            0.05513968016304       -3.92334849099734       -1.26107896984928
H           -2.09830832776080       -4.42524316126963       -0.24922108591592
H           -3.95791401200622       -3.70035880968124        0.74635385790153
H            1.14089040838727       -1.43370466477310       -2.47214503621642
H            2.12716994703245       -1.89656353228977       -1.09801289121047
H            2.21801604758648        0.55653075923483       -1.96581681910008
H           -1.67233302077853        3.61165074755193        2.11188957740608
