113
 energy: -186.518064261175 gnorm: 0.000539001071 xtb: 6.6.1 (8d0f1dd)
C            1.68280395831432       -1.11512729908728        2.04900195120963
C            0.72598730981807        0.02187230650103        1.92746358623302
C           -0.42611005122175        0.18859745210937        2.60859911604789
C           -1.11014063205343       -1.03404273295454        3.17675456875959
C           -1.38155769019914       -1.76826267816323        1.85342517354776
O           -0.53374392327516       -2.54364533418911        1.46724616211095
C           -2.70599551192010       -1.63741451063324        1.10696629657345
C           -3.45710033277295       -2.78105745881880        1.83976263617535
C           -2.53254989796204       -2.04296277419455       -0.38506931611030
C           -3.85535422312954       -2.03379773319984       -1.17641541711525
C           -5.04242356968243       -1.30551122454708       -0.57413521641984
C           -4.84693919232886       -0.33392828715333        0.60161366279244
C           -5.92284756034535       -1.18486701530895        1.29661968524547
O           -5.90225431881251       -2.13208352724868        0.23090349582501
C           -3.42043683023373       -0.26866263280151        1.22927513551395
C           -2.77454561900930        1.01967579938280        0.62156240868318
C           -1.44104779445813        1.74866113935986        1.03190957380434
C           -0.27835522293943        1.31954733277525        0.10773051510086
C            1.03941383884809        1.01774259568367        0.83693927781136
O            1.92582758805390        0.38493098045816       -0.09604226220357
C            2.57312961782798        1.16953577573948       -0.94462620815083
O            2.52529013245324        2.37195805798603       -0.94702530702582
C            3.44550389294063        0.34735484105247       -1.88277541373438
C            4.65671267403262       -0.19136031816079       -1.07365493946227
C            5.44298000187466        0.97416753677770       -0.52336972651510
C            5.32603474834301        1.34044206757373        0.81268993153559
C            6.00782071824009        2.44199361672628        1.29793188659807
C            6.81644622452328        3.18402754958711        0.45428842022806
C            6.94009137207655        2.82345921773874       -0.87696373221189
C            6.25407805349124        1.72726611888405       -1.36585827480745
N            5.35608864247344       -1.07166197235072       -1.97916648741982
C            6.51818706552652       -1.52193663979050       -1.75850485551143
C            7.12940027854684       -2.43516075811857       -2.73617407535845
C            6.47528962990853       -2.71821450825500       -3.93374793844537
C            7.04865824664845       -3.57766868007546       -4.84978446945383
C            8.27747368227171       -4.16188879918388       -4.58262138769413
C            8.93290451859257       -3.88160756641140       -3.39521898216706
C            8.36458539419559       -3.02187021948235       -2.47368669245130
O            7.29017636463165       -1.26526804359752       -0.68140787758944
O            2.71296501314616       -0.71243415851292       -2.42376221479386
C           -1.06513149287467        1.56058014475272        2.53231380505562
C           -2.25883975287058        1.88074270434003        3.44293267221791
C           -0.00318421464948        2.62027981089327        2.95557710193761
O           -1.68258470574736        3.13294866415463        0.87923068947659
O           -2.78242602910420        0.83211631212208       -0.80421631069481
C           -3.26675436823545        1.79910766874038       -1.58358282802477
O           -3.59175324715205        2.89505170083152       -1.17653462457767
C           -3.35915716217023        1.38774950379128       -2.99913010606928
C           -4.27878361756847        2.03798075992265       -3.81882369404429
C           -4.39834398181619        1.67457606448186       -5.14648575296242
C           -3.59245066222722        0.67318850083577       -5.66542607858535
C           -2.66271669490983        0.03771381129735       -4.85737604648606
C           -2.54396037297735        0.38862484748831       -3.52541607847229
O           -5.38090835870556        0.94382159356526        0.25679896969297
C           -5.74504153555737        1.75614089717283        1.26907854171465
O           -5.62455520967661        1.45537622938822        2.42800597442719
C           -6.28392769644440        3.04991361653846        0.73961302376179
O           -2.02608846341689       -3.33980373646972       -0.55384462419637
O           -2.26630022396878       -0.82713130928112        3.96076995104809
C           -2.14578186545121       -0.95324350756600        5.29534399558330
O           -1.11399923581657       -1.21136342805373        5.85046735610403
C           -3.47866017438946       -0.75229669011351        5.96107728554557
H            2.69705796888116       -0.71897687908170        2.01240031131789
H            1.54555141743472       -1.65809780228960        2.97877490202647
H            1.56933989841894       -1.81355993381624        1.22078746281088
H           -0.40195578395483       -1.63982006431699        3.75848259794388
H           -3.71206687850780       -2.48729535142329        2.85428523026143
H           -2.81421338570368       -3.65850833118747        1.88432063512080
H           -4.34465049245514       -3.07299600082708        1.29039773480831
H           -1.83445989781938       -1.31946190327990       -0.83300343256670
H           -4.14993228523559       -3.07939464618465       -1.29147723053276
H           -3.65929707598092       -1.63441073549247       -2.17063861595760
H           -5.63141421026883       -0.83085758280712       -1.36908960279416
H           -5.69511792220238       -1.61096312813169        2.27119513298343
H           -6.88687705355731       -0.66891078584326        1.34514504803668
H           -3.56842873884256       -0.09317241880806        2.29379594187837
H           -3.50348327378441        1.80646368777809        0.85252701234739
H           -0.53909937378236        0.40690078006925       -0.43109463741918
H           -0.10354377216847        2.11101212781812       -0.62405981021160
H            1.52464712885408        1.94196550783683        1.16206132787599
H            3.81687475782183        1.01663443439768       -2.67468066241531
H            4.24227237156128       -0.79205921716318       -0.24892191297232
H            4.69305128481024        0.76391942257705        1.47381535639319
H            5.90453993097173        2.72163592368376        2.33569353289131
H            7.34664063120995        4.04447800406445        0.83333437727633
H            7.56683207288448        3.40171340161640       -1.53891057027413
H            6.34747409283313        1.44315113400729       -2.40418109952399
H            5.52301448987945       -2.25174841063455       -4.12832334179189
H            6.53887415973238       -3.79425537845929       -5.77693952590123
H            8.72385011470357       -4.83374524936086       -5.30086726665368
H            9.89089845003191       -4.33452447845678       -3.18679127175681
H            8.86968666586707       -2.79963440033749       -1.54681957040837
H            6.86750711930877       -0.61004078610299       -0.10543571317520
H            3.36928579308256       -1.37617669056072       -2.68789120115073
H           -1.96170884593496        1.76474180191028        4.48276987189400
H           -2.51616972421947        2.92380805262695        3.26975654821313
H           -3.15614876500099        1.30185006629529        3.28053751997132
H           -0.35470748569071        3.16650066241467        3.82550897628357
H            0.15149623042552        3.34618188322942        2.16535970458587
H            0.94074996189556        2.15829898734127        3.22756625189449
H           -2.22241428764868        3.30527546843914        0.09125749710215
H           -4.89238275386588        2.81881528606362       -3.39595168953507
H           -5.11652816296652        2.17383017580469       -5.77924181468209
H           -3.68428151863144        0.39195083353069       -6.70391698740939
H           -2.02664118180391       -0.73263535820449       -5.26606211353221
H           -1.80693430352994       -0.08998172293848       -2.90012488117585
H           -7.18103905533319        2.85753117596714        0.15598991296725
H           -5.54177445871039        3.49487059248780        0.07842522142527
H           -6.50963639426101        3.71935346277171        1.56343917707086
H           -1.19443532499051       -3.40107441620676       -0.05551313512368
H           -3.96288556223614       -1.72178813262677        6.06784544419517
H           -3.33038119465343       -0.33413347310139        6.95233981298794
H           -4.11213290762901       -0.10553126997633        5.36107763291917
