37
 energy: -58.047458587038 gnorm: 0.000573023489 xtb: 6.6.1 (8d0f1dd)
C           -2.39198227616073        2.15687952826716        0.26289962152992
C           -1.72914943076802        1.00686058193092       -0.15946774975275
C           -2.23255742215769       -0.05367709074882       -1.11542418253261
C           -1.26103540515024       -1.26051742151746       -1.37958288102341
C            0.19317388797187       -0.75603431973109       -1.42822651787466
C            1.35091987890899       -1.66609884455649       -1.72691292481303
C            2.54406116857601       -1.49239266942002       -1.16126679984885
C            2.94226474870741       -0.45870108061960       -0.10088786431001
C            1.79309711387508        0.53978591556717       -0.02750167449190
C            0.47023898707238       -0.21233906665824       -0.04936106930148
C            0.33028998384593       -1.31774053512123        1.00670459731954
C           -1.07935140585777       -1.89355279214393        0.95808753543619
N           -1.36370805349113       -2.32447211081217       -0.40051470184968
C           -0.43210669885316        0.90870991942465        0.27037823104554
C            0.30571377883538        1.85561942676114        0.96555922942795
C           -0.36932874223855        2.99055592442826        1.40005290758410
C           -1.72168579982480        3.08685805492834        1.04669082460501
O            0.26318937276127        3.96661360264604        2.10790778523826
O            1.64458275896311        1.51738733853359        1.01840601303572
O            3.19457571121298       -1.06748333345968        1.14542390328165
H           -3.41833506754557        2.34312433775218       -0.01640534403343
H           -3.18545457822714       -0.45937148777278       -0.76085375569447
H           -2.43526699599914        0.43533350206468       -2.07339901118120
H           -1.53776844214794       -1.69803697472646       -2.34683487314058
H            0.21857260897743        0.06385471191117       -2.16172529936430
H            1.20418991071378       -2.45456926259618       -2.45112732691639
H            3.35382204514852       -2.16161248043458       -1.42628557356888
H            3.85774486377404        0.05620569412323       -0.44196673442304
H            1.86112499908118        1.11768320933565       -0.96943549332250
H            1.04022733517473       -2.11635213161033        0.80630770840701
H            0.54303224262407       -0.90425607544748        1.99234596430867
H           -1.80047183766044       -1.14608863579349        1.32738037529420
H           -1.14222340759460       -2.77143054385609        1.60618907583735
H           -2.28406856811056       -2.75050708971911       -0.44437489491611
H           -2.25945911393521        3.96927247339675        1.37097908352318
H           -0.36432906045015        4.66781514137827        2.32133919373408
H            3.89746090994861       -1.71732541570414        1.03490262275094
